modela sistema eletrico/bdgd_to_opendss/cenarios/cenario_1/cenario_2/001002/run_cargas_agregadas.dss
New Object = Circuit.001002_Barra_Slack
~ basekv = 13.8 pu = 1.029 angle = 0
New line.001002001002 phases = 3 bus1 = SourceBus bus2 = 59904185827576240MT.1.2.3 switch = y
New linecode.16512325H-3_linecode_media nphases=3 BaseFreq=60
~ r1=0.0006129999999999999
~ x1=0.00033
~ c1=0
~ Normamps=235.0
~ Emergamps=329.0
New linecode.16512325H-3P_linecode_media nphases=3 BaseFreq=60
~ r1=0.0006129999999999999
~ x1=0.00033
~ c1=0
~ Normamps=235.0
~ Emergamps=329.0
New linecode.16512328H-3_linecode_media nphases=3 BaseFreq=60
~ r1=0.000306
~ x1=0.00038500000000000003
~ c1=0
~ Normamps=365.0
~ Emergamps=511.0
New linecode.16512329H-3_linecode_media nphases=3 BaseFreq=60
~ r1=0.000975
~ x1=0.000347
~ c1=0
~ Normamps=175.0
~ Emergamps=245.0
New linecode.16512329H-3P_linecode_media nphases=3 BaseFreq=60
~ r1=0.000975
~ x1=0.000347
~ c1=0
~ Normamps=175.0
~ Emergamps=245.0
New linecode.16512375H-3_linecode_media nphases=3 BaseFreq=60
~ r1=0.000195
~ x1=0.00029099999999999997
~ c1=0
~ Normamps=495.0
~ Emergamps=693.0
New linecode.5281622H-3P_linecode_media nphases=3 BaseFreq=60
~ r1=0.00131
~ x1=0.00041
~ c1=0
~ Normamps=68.0
~ Emergamps=68.0
New linecode.5281627C-3_linecode_media nphases=3 BaseFreq=60
~ r1=0.000992
~ x1=0.00011700000000000001
~ c1=0
~ Normamps=70.0
~ Emergamps=70.0
New linecode.5281627C-3P_linecode_media nphases=3 BaseFreq=60
~ r1=0.000992
~ x1=0.00011700000000000001
~ c1=0
~ Normamps=70.0
~ Emergamps=70.0
New linecode.5281628C-3_linecode_media nphases=3 BaseFreq=60
~ r1=0.000247
~ x1=0.000259
~ c1=0
~ Normamps=291.0
~ Emergamps=291.0
New linecode.5281631C-3_linecode_media nphases=3 BaseFreq=60
~ r1=0.000739
~ x1=0.000303
~ c1=0
~ Normamps=152.0
~ Emergamps=181.0
New linecode.5281632C-3_linecode_media nphases=3 BaseFreq=60
~ r1=0.00019700000000000002
~ x1=0.000251
~ c1=0
~ Normamps=368.0
~ Emergamps=400.0
New Capacitor.34559319_Banco_de_Capacitor Bus1 = 59715864827499662MT.1.3 kv = 13.800 kVAR = 17 phases = 2 conn = wye
New line.1207380_Chave_seccionadora_media_tensao phases = 3 bus1 = 0011207356.1.2.3 bus2 = 0011207380.1.2.3 switch = F
New line.1207364_Chave_seccionadora_media_tensao phases = 3 bus1 = 0011207380.1.2.3 bus2 = 59904185827576240MT.1.2.3 switch = F
New line.1207356_Chave_seccionadora_media_tensao phases = 3 bus1 = 0015329860.1.2.3 bus2 = 0011207356.1.2.3 switch = F
New line.64751776_Chave_seccionadora_media_tensao phases = 3 bus1 = 59697771827497267MT.1.2.3 bus2 = 59697846827497137MT.1.2.3 switch = A
New line.64751782_Chave_seccionadora_media_tensao phases = 3 bus1 = 59698096827486174MT.1.2.3 bus2 = 59698241827486136MT.1.2.3 switch = F
New line.64751787_Chave_seccionadora_media_tensao phases = 3 bus1 = 59700191827495940MT.1.2.3 bus2 = 59700043827495918MT.1.2.3 switch = F
New line.64751777_Chave_seccionadora_media_tensao phases = 3 bus1 = 59701222827497197MT.1.2.3 bus2 = 59701366827497241MT.1.2.3 switch = A
New line.34651280CT_Chave_seccionadora_media_tensao phases = 3 bus1 = 59701570827496361MT.1.2.3 bus2 = 59701570827496361ET.1.2.3 switch = F
New line.64740228_Chave_seccionadora_media_tensao phases = 3 bus1 = 59702941827496796MT.1.2.3 bus2 = 59702961827496647MT.1.2.3 switch = F
New line.34657845CT_Chave_seccionadora_media_tensao phases = 3 bus1 = 59703356827489595MT.1.2.3 bus2 = 34657845CTISSO.1.2.3 switch = F
New line.34654153CT_Chave_seccionadora_media_tensao phases = 3 bus1 = 59703356827489595MT.1.2.3 bus2 = 59703356827489595ET.1.2.3 switch = F
New line.34777087CT_Chave_seccionadora_media_tensao phases = 3 bus1 = 59703359827490448MT.1.2.3 bus2 = 59703359827490448ET.1.2.3 switch = F
New line.64751779_Chave_seccionadora_media_tensao phases = 3 bus1 = 59706391827497749MT.1.2.3 bus2 = 59706246827497709MT.1.2.3 switch = F
New line.34751065CT_Chave_seccionadora_media_tensao phases = 3 bus1 = 59717044827507973MT.1.2.3 bus2 = 59717044827507973ET.1.2.3 switch = F
New line.34703388CT_Chave_seccionadora_media_tensao phases = 3 bus1 = 59719266827500348MT.1.2.3 bus2 = 59719266827500348ET.1.2.3 switch = F
New line.64706477_Chave_seccionadora_media_tensao phases = 3 bus1 = 59720261827512231MT.1.2.3 bus2 = 59720126827512166MT.1.2.3 switch = F
New line.64751789_Chave_seccionadora_media_tensao phases = 3 bus1 = 59722491827509448MT.1.2.3 bus2 = 59722400827509568MT.1.2.3 switch = F
New line.64751788_Chave_seccionadora_media_tensao phases = 3 bus1 = 59722849827524612MT.1.2.3 bus2 = 59722949827524724MT.1.2.3 switch = F
New line.34651815CT_Chave_seccionadora_media_tensao phases = 3 bus1 = 59727738827508523MT.1.2.3 bus2 = 59727738827508523ET.1.2.3 switch = F
New line.64751783_Chave_seccionadora_media_tensao phases = 3 bus1 = 59727890827527241MT.1.2.3 bus2 = 59728039827527220MT.1.2.3 switch = F
New line.64751778_Chave_seccionadora_media_tensao phases = 3 bus1 = 59729567827500575MT.1.2.3 bus2 = 59729601827500429MT.1.2.3 switch = F
New line.34629110CT_Chave_seccionadora_media_tensao phases = 3 bus1 = 59729925827494859MT.1.2.3 bus2 = 59729925827494859ET.1.2.3 switch = F
New line.34776848CT_Chave_seccionadora_media_tensao phases = 3 bus1 = 59730301827533163MT.1.2.3 bus2 = 59730301827533163ET.1.2.3 switch = F
New line.64659096_Chave_seccionadora_media_tensao phases = 3 bus1 = 59730480827496687MT.1.2.3 bus2 = 59730331827496674MT.1.2.3 switch = F
New line.34596085CT_Chave_seccionadora_media_tensao phases = 3 bus1 = 59731582827487733MT.1.2.3 bus2 = 59731582827487733ET.1.2.3 switch = F
New line.34741744CT_Chave_seccionadora_media_tensao phases = 3 bus1 = 59731663827491823MT.1.2.3 bus2 = 59731663827491823ET.1.2.3 switch = F
New line.64670655_Chave_seccionadora_media_tensao phases = 3 bus1 = 59732313827488050MT.1.2.3 bus2 = 59732175827487990MT.1.2.3 switch = F
New line.34674947CT_Chave_seccionadora_media_tensao phases = 3 bus1 = 59734623827537869MT.1.2.3 bus2 = 59734623827537869ET.1.2.3 switch = F
New line.34792559CT_Chave_seccionadora_media_tensao phases = 3 bus1 = 59735151827538412MT.1.2.3 bus2 = 59735151827538412ET.1.2.3 switch = F
New line.64751774_Chave_seccionadora_media_tensao phases = 3 bus1 = 59735238827518212MT.1.2.3 bus2 = 59735197827518356MT.1.2.3 switch = A
New line.34781158CT_Chave_seccionadora_media_tensao phases = 3 bus1 = 59736722827514801MT.1.2.3 bus2 = 59736722827514801ET.1.2.3 switch = F
New line.64751780_Chave_seccionadora_media_tensao phases = 3 bus1 = 59740044827506873MT.1.2.3 bus2 = 59739989827507012MT.1.2.3 switch = F
New line.64751772_Chave_seccionadora_media_tensao phases = 3 bus1 = 59742045827497910MT.1.2.3 bus2 = 59742136827497791MT.1.2.3 switch = A
New line.34630183CT_Chave_seccionadora_media_tensao phases = 3 bus1 = 59742062827514965MT.1.2.3 bus2 = 59742062827514965ET.1.2.3 switch = F
New line.64675825_Chave_seccionadora_media_tensao phases = 3 bus1 = 59742187827499767MT.1.2.3 bus2 = 59742318827499839MT.1.2.3 switch = F
New line.64751694_Chave_seccionadora_media_tensao phases = 3 bus1 = 59742447827497945MT.1.2.3 bus2 = 59742475827497987MT.1.2.3 switch = A
New line.64751786_Chave_seccionadora_media_tensao phases = 3 bus1 = 59742494827498243MT.1.2.3 bus2 = 59742534827498162MT.1.2.3 switch = F
New line.34705891CT_Chave_seccionadora_media_tensao phases = 3 bus1 = 59745769827505002MT.1.2.3 bus2 = 59745769827505002ET.1.2.3 switch = F
New line.34769157CT_Chave_seccionadora_media_tensao phases = 3 bus1 = 59748187827521019MT.1.2.3 bus2 = 59748187827521019ET.1.2.3 switch = F
New line.64670654_Chave_seccionadora_media_tensao phases = 3 bus1 = 59749174827521391MT.1.2.3 bus2 = 59749034827521338MT.1.2.3 switch = F
New line.34704132CT_Chave_seccionadora_media_tensao phases = 3 bus1 = 59749735827519790MT.1.2.3 bus2 = 59749735827519790ET.1.2.3 switch = F
New line.34755506CT_Chave_seccionadora_media_tensao phases = 3 bus1 = 59752471827512776MT.1.2.3 bus2 = 59752471827512776ET.1.2.3 switch = F
New line.34682101CT_Chave_seccionadora_media_tensao phases = 3 bus1 = 59752819827511918MT.1.2.3 bus2 = 59752819827511918ET.1.2.3 switch = F
New line.64698704_Chave_seccionadora_media_tensao phases = 3 bus1 = 59754027827509150MT.1.2.3 bus2 = 59753967827509287MT.1.2.3 switch = F
New line.34798802CT_Chave_seccionadora_media_tensao phases = 3 bus1 = 59755655827501175MT.1.2.3 bus2 = 59755655827501175ET.1.2.3 switch = F
New line.34804823CT_Chave_seccionadora_media_tensao phases = 3 bus1 = 59755961827506976MT.1.2.3 bus2 = 59755961827506976ET.1.2.3 switch = F
New line.34667192CT_Chave_seccionadora_media_tensao phases = 3 bus1 = 59756248827496437MT.1.2.3 bus2 = 59756248827496437ET.1.2.3 switch = F
New line.64659097_Chave_seccionadora_media_tensao phases = 3 bus1 = 59761056827501254MT.1.2.3 bus2 = 59760911827501215MT.1.2.3 switch = F
New line.34589241CT_Chave_seccionadora_media_tensao phases = 3 bus1 = 59762124827497594MT.1.2.3 bus2 = 59762124827497594ET.1.2.3 switch = F
New line.64740227_Chave_seccionadora_media_tensao phases = 3 bus1 = 59764196827509535MT.1.2.3 bus2 = 59764154827509679MT.1.2.3 switch = F
New line.34581371CT_Chave_seccionadora_media_tensao phases = 3 bus1 = 59765802827512445MT.1.2.3 bus2 = 59765802827512445ET.1.2.3 switch = F
New line.64709884_Chave_seccionadora_media_tensao phases = 3 bus1 = 59767765827510675MT.1.2.3 bus2 = 59767789827510527MT.1.2.3 switch = F
New line.34719405CT_Chave_seccionadora_media_tensao phases = 3 bus1 = 59769451827505176MT.1.2.3 bus2 = 59769451827505176ET.1.2.3 switch = F
New line.64751784_Chave_seccionadora_media_tensao phases = 3 bus1 = 59769638827516027MT.1.2.3 bus2 = 59769347827515904MT.1.2.3 switch = F
New line.64751771_Chave_seccionadora_media_tensao phases = 3 bus1 = 59769778827516435MT.1.2.3 bus2 = 59769637827516383MT.1.2.3 switch = A
New line.64751695_Chave_seccionadora_media_tensao phases = 3 bus1 = 59769788827516087MT.1.2.3 bus2 = 59769638827516027MT.1.2.3 switch = F
New line.64751785_Chave_seccionadora_media_tensao phases = 3 bus1 = 59769937827516071MT.1.2.3 bus2 = 59769788827516087MT.1.2.3 switch = F
New line.34621609CT_Chave_seccionadora_media_tensao phases = 3 bus1 = 59770391827514640MT.1.2.3 bus2 = 59770391827514640ET.1.2.3 switch = F
New line.64670653_Chave_seccionadora_media_tensao phases = 3 bus1 = 59771318827516500MT.1.2.3 bus2 = 59771251827516366MT.1.2.3 switch = F
New line.34676976CT_Chave_seccionadora_media_tensao phases = 3 bus1 = 59801075827527977MT.1.2.3 bus2 = 59801075827527977ET.1.2.3 switch = F
New line.34724002CT_Chave_seccionadora_media_tensao phases = 3 bus1 = 59806821827530244MT.1.2.3 bus2 = 59806821827530244ET.1.2.3 switch = F
New line.34719409CT_Chave_seccionadora_media_tensao phases = 3 bus1 = 59854681827548506MT.1.2.3 bus2 = 59854681827548506ET.1.2.3 switch = F
New line.64751781_Chave_seccionadora_media_tensao phases = 3 bus1 = 59872357827555249MT.1.2.3 bus2 = 59872218827555193MT.1.2.3 switch = F
New line.34760174CT_Chave_seccionadora_media_tensao phases = 3 bus1 = 59884204827574489MT.1.2.3 bus2 = 59884204827574489ET.1.2.3 switch = F
New line.34756002CT_Chave_seccionadora_media_tensao phases = 3 bus1 = 59902179827569261MT.1.2.3 bus2 = 59902179827569261ET.1.2.3 switch = F
New line.64709883_Chave_seccionadora_media_tensao phases = 3 bus1 = 59902819827568278MT.1.2.3 bus2 = 59902737827568404MT.1.2.3 switch = F
New line.1207372_Chave_seccionadora_media_tensao phases = 3 bus1 = 59904185827576240MT.1.2.3 bus2 = 0011207372.1.2.3 switch = A
New line.64751790_Chave_seccionadora_media_tensao phases = 3 bus1 = 59905479827569846MT.1.2.3 bus2 = 59905599827569756MT.1.2.3 switch = F
New Load.nome_00a1f2cf64df27b4da2e762b7fe87f42a1f4d7ade34da89d5494f66293c1f4fb_curva_diaria_MT-Tipo10_curva_anual_309.65_246.72_253.96_268.2_264.36_270.61_228.19_328.15_408.25_488.37_479.03_457.03_carga_media Bus1=59731663827491823MT.1.2.3 Phases=3
~ Conn=wye Model=1 Kv=13.8 Kw=1 pf=0.92
New Load.nome_07a9598cd68af8f0978a045a63deaea21b9a485074453416ce663d8b6be6f56c_curva_diaria_MT-Tipo9_curva_anual_68.63_58.61_60.88_65.76_68.84_65.8_64.57_75.96_78.88_80.1_77.4_71.5_carga_media Bus1=59726432827496334MT.1.2.3 Phases=3
~ Conn=wye Model=1 Kv=13.8 Kw=1 pf=0.92
New Load.nome_8092aa127b199444500bee8e1ea3ffb07642831886e95318bd7b75fde456c711_curva_diaria_MT-Tipo5_curva_anual_1272.69_1061.35_1341.31_1162.55_1275.37_1062.26_1150.88_1456.11_1546.93_1774.54_1559.5_1571.7_carga_media Bus1=59735151827538412MT.1.2.3 Phases=3
~ Conn=wye Model=1 Kv=13.8 Kw=1 pf=0.92
New Load.nome_b20ab548a2ff09b133046997e050acfaed58c318554b8f93157275cdd04cb349_curva_diaria_MT-Tipo8_curva_anual_200.98_166.67_208.56_187.25_207.4_184.5_195.54_238.85_240.22_241.3_217.41_220.93_carga_media Bus1=59734623827537869MT.1.2.3 Phases=3
~ Conn=wye Model=1 Kv=13.8 Kw=1 pf=0.92
New Load.nome_dd7810a65ad0868c7a0f84f04788310c03fc8ef936e18b67d3be0c9d17cdd5dc_curva_diaria_MT-Tipo5_curva_anual_260.35_214.58_279.37_226.18_255.05_197.89_227.9_314.85_338.13_403.85_350.33_312.94_carga_media Bus1=59755655827501175MT.1.2.3 Phases=3
~ Conn=wye Model=1 Kv=13.8 Kw=1 pf=0.92
New linecode.16512325H-3_linecode_media nphases=3 BaseFreq=60
~ r1=0.0006129999999999999
~ x1=0.00033
~ c1=0
~ Normamps=235.0
~ Emergamps=329.0
New linecode.16512325H-3P_linecode_media nphases=3 BaseFreq=60
~ r1=0.0006129999999999999
~ x1=0.00033
~ c1=0
~ Normamps=235.0
~ Emergamps=329.0
New linecode.16512328H-3_linecode_media nphases=3 BaseFreq=60
~ r1=0.000306
~ x1=0.00038500000000000003
~ c1=0
~ Normamps=365.0
~ Emergamps=511.0
New linecode.16512329H-3_linecode_media nphases=3 BaseFreq=60
~ r1=0.000975
~ x1=0.000347
~ c1=0
~ Normamps=175.0
~ Emergamps=245.0
New linecode.16512329H-3P_linecode_media nphases=3 BaseFreq=60
~ r1=0.000975
~ x1=0.000347
~ c1=0
~ Normamps=175.0
~ Emergamps=245.0
New linecode.16512375H-3_linecode_media nphases=3 BaseFreq=60
~ r1=0.000195
~ x1=0.00029099999999999997
~ c1=0
~ Normamps=495.0
~ Emergamps=693.0
New linecode.5281622H-3P_linecode_media nphases=3 BaseFreq=60
~ r1=0.00131
~ x1=0.00041
~ c1=0
~ Normamps=68.0
~ Emergamps=68.0
New linecode.5281627C-3_linecode_media nphases=3 BaseFreq=60
~ r1=0.000992
~ x1=0.00011700000000000001
~ c1=0
~ Normamps=70.0
~ Emergamps=70.0
New linecode.5281627C-3P_linecode_media nphases=3 BaseFreq=60
~ r1=0.000992
~ x1=0.00011700000000000001
~ c1=0
~ Normamps=70.0
~ Emergamps=70.0
New linecode.5281628C-3_linecode_media nphases=3 BaseFreq=60
~ r1=0.000247
~ x1=0.000259
~ c1=0
~ Normamps=291.0
~ Emergamps=291.0
New linecode.5281631C-3_linecode_media nphases=3 BaseFreq=60
~ r1=0.000739
~ x1=0.000303
~ c1=0
~ Normamps=152.0
~ Emergamps=181.0
New linecode.5281632C-3_linecode_media nphases=3 BaseFreq=60
~ r1=0.00019700000000000002
~ x1=0.000251
~ c1=0
~ Normamps=368.0
~ Emergamps=400.0
New Line.16757453_linha_media Phases = 3 Bus1 = 59761494827499801MT.1.2.3 Bus2 = 59762124827497594MT.1.2.3 Linecode = 16512329H-3_linecode_media Length = 22.952 units = m
New Line.17048658_linha_media Phases = 3 Bus1 = 59742318827499839MT.1.2.3 Bus2 = 59743486827500480MT.1.2.3 Linecode = 16512329H-3_linecode_media Length = 14.818 units = m
New Line.12658753_linha_media Phases = 3 Bus1 = 59727000827503864MT.1.2.3 Bus2 = 59724457827507004MT.1.2.3 Linecode = 5281628C-3_linecode_media Length = 38.529 units = m
New Line.16757454_linha_media Phases = 3 Bus1 = 59759643827505320MT.1.2.3 Bus2 = 59760722827502231MT.1.2.3 Linecode = 16512329H-3_linecode_media Length = 32.72 units = m
New Line.15942356_linha_media Phases = 3 Bus1 = 59884204827574489MT.1.2.3 Bus2 = 59882223827571150MT.1.2.3 Linecode = 5281632C-3_linecode_media Length = 38.824 units = m
New Line.15901506_linha_media Phases = 3 Bus1 = 59755961827506976MT.1.2.3 Bus2 = 59755060827506769MT.1.2.3 Linecode = 16512375H-3_linecode_media Length = 9.245 units = m
New Line.15028628_linha_media Phases = 3 Bus1 = 59720407827512296MT.1.2.3 Bus2 = 59720261827512231MT.1.2.3 Linecode = 16512329H-3_linecode_media Length = 1.598 units = m
New Line.16004796_linha_media Phases = 3 Bus1 = 59765623827510036MT.1.2.3 Bus2 = 59764196827509535MT.1.2.3 Linecode = 16512375H-3_linecode_media Length = 15.124 units = m
New Line.15028632_linha_media Phases = 3 Bus1 = 59732465827488100MT.1.2.3 Bus2 = 59732313827488050MT.1.2.3 Linecode = 16512329H-3P_linecode_media Length = 1.6 units = m
New Line.15028624_linha_media Phases = 3 Bus1 = 59770032827516199MT.1.2.3 Bus2 = 59769778827516435MT.1.2.3 Linecode = 16512329H-3_linecode_media Length = 1.598 units = m
New Line.16728909_linha_media Phases = 3 Bus1 = 59732421827535534MT.1.2.3 Bus2 = 59734623827537869MT.1.2.3 Linecode = 5281632C-3_linecode_media Length = 32.095 units = m
New Line.15901505_linha_media Phases = 3 Bus1 = 59755060827506769MT.1.2.3 Bus2 = 59755088827506101MT.1.2.3 Linecode = 16512329H-3_linecode_media Length = 6.686 units = m
New Line.14885973_linha_media Phases = 3 Bus1 = 59706932827499966MT.1.2.3 Bus2 = 59705652827498596MT.1.2.3 Linecode = 5281632C-3_linecode_media Length = 18.749 units = m
New Line.15901897_linha_media Phases = 3 Bus1 = 59902737827568404MT.1.2.3 Bus2 = 59902179827569261MT.1.2.3 Linecode = 16512329H-3_linecode_media Length = 11.73 units = m
New Line.16005077_linha_media Phases = 3 Bus1 = 59891390827586113MT.1.2.3 Bus2 = 59889095827585436MT.1.2.3 Linecode = 5281632C-3_linecode_media Length = 23.928 units = m
New Line.16005055_linha_media Phases = 3 Bus1 = 59894771827582736MT.1.2.3 Bus2 = 59894079827584809MT.1.2.3 Linecode = 5281632C-3_linecode_media Length = 21.855 units = m
New Line.13692058_linha_media Phases = 3 Bus1 = 59755088827506101MT.1.2.3 Bus2 = 59755403827502989MT.1.2.3 Linecode = 5281631C-3_linecode_media Length = 29.564 units = m
New Line.15901507_linha_media Phases = 3 Bus1 = 59741044827504172MT.1.2.3 Bus2 = 59740044827506873MT.1.2.3 Linecode = 16512375H-3_linecode_media Length = 28.802 units = m
New Line.13703792_linha_media Phases = 3 Bus1 = 59792867827524880MT.1.2.3 Bus2 = 59789268827523621MT.1.2.3 Linecode = 16512375H-3_linecode_media Length = 36.825 units = m
New Line.16004793_linha_media Phases = 3 Bus1 = 59733003827502810MT.1.2.3 Bus2 = 59729458827502233MT.1.2.3 Linecode = 16512375H-3_linecode_media Length = 35.917 units = m
New Line.16005048_linha_media Phases = 3 Bus1 = 59861072827550792MT.1.2.3 Bus2 = 59857847827549624MT.1.2.3 Linecode = 16512375H-3_linecode_media Length = 34.3 units = m
New Line.16005049_linha_media Phases = 3 Bus1 = 59863417827551874MT.1.2.3 Bus2 = 59861072827550792MT.1.2.3 Linecode = 16512375H-3_linecode_media Length = 25.826 units = m
New Line.16005053_linha_media Phases = 3 Bus1 = 59886357827577086MT.1.2.3 Bus2 = 59884204827574489MT.1.2.3 Linecode = 5281632C-3_linecode_media Length = 33.734 units = m
New Line.13736096_linha_media Phases = 3 Bus1 = 59742950827504473MT.1.2.3 Bus2 = 59741044827504172MT.1.2.3 Linecode = 16512375H-3_linecode_media Length = 17.227 units = m
New Line.14844446_linha_media Phases = 3 Bus1 = 59698296827496250MT.1.2.3 Bus2 = 59698052827496782MT.1.2.3 Linecode = 16512328H-3_linecode_media Length = 5.853 units = m
New Line.16004863_linha_media Phases = 3 Bus1 = 59768169827508131MT.1.2.3 Bus2 = 59769451827505176MT.1.2.3 Linecode = 16512329H-3_linecode_media Length = 32.211 units = m
New Line.13478792_linha_media Phases = 3 Bus1 = 59755655827501175MT.1.2.3 Bus2 = 59755841827499728MT.1.2.3 Linecode = 5281631C-3_linecode_media Length = 14.589 units = m
New Line.13736106_linha_media Phases = 3 Bus1 = 59739728827503888MT.1.2.3 Bus2 = 59736314827503352MT.1.2.3 Linecode = 16512375H-3_linecode_media Length = 34.558 units = m
New Line.13706206_linha_media Phases = 3 Bus1 = 59876466827558735MT.1.2.3 Bus2 = 59875874827556588MT.1.2.3 Linecode = 5281632C-3_linecode_media Length = 19.658 units = m
New Line.16785377_linha_media Phases = 3 Bus1 = 59900389827568410MT.1.2.3 Bus2 = 59898716827571418MT.1.2.3 Linecode = 5281632C-3_linecode_media Length = 34.419 units = m
New Line.16485622_linha_media Phases = 3 Bus1 = 59726108827528248MT.1.2.3 Bus2 = 59727607827530161MT.1.2.3 Linecode = 5281632C-3_linecode_media Length = 24.303 units = m
New Line.16005010_linha_media Phases = 3 Bus1 = 59797954827526486MT.1.2.3 Bus2 = 59795657827525968MT.1.2.3 Linecode = 16512375H-3_linecode_media Length = 23.547 units = m
New Line.13159753_linha_media Phases = 3 Bus1 = 59698728827495724MT.1.2.3 Bus2 = 59698296827496250MT.1.2.3 Linecode = 16512328H-3_linecode_media Length = 5.411 units = m
New Line.16006603_linha_media Phases = 3 Bus1 = 59703309827492930MT.1.2.3 Bus2 = 59703359827490448MT.1.2.3 Linecode = 16512329H-3P_linecode_media Length = 24.825 units = m
New Line.13703785_linha_media Phases = 3 Bus1 = 59872775827568096MT.1.2.3 Bus2 = 59874011827565490MT.1.2.3 Linecode = 5281632C-3_linecode_media Length = 27.417 units = m
New Line.15368131_linha_media Phases = 3 Bus1 = 59907967827569935MT.1.2.3 Bus2 = 59910107827570260MT.1.2.3 Linecode = 5281632C-3_linecode_media Length = 23.143 units = m
New Line.16005043_linha_media Phases = 3 Bus1 = 59845645827544953MT.1.2.3 Bus2 = 59842154827543712MT.1.2.3 Linecode = 16512375H-3_linecode_media Length = 37.05 units = m
New Line.15028619_linha_media Phases = 3 Bus1 = 59727890827527241MT.1.2.3 Bus2 = 59727944827527090MT.1.2.3 Linecode = 16512329H-3_linecode_media Length = 1.604 units = m
New Line.16785378_linha_media Phases = 3 Bus1 = 59898716827571418MT.1.2.3 Bus2 = 59897833827574401MT.1.2.3 Linecode = 5281632C-3_linecode_media Length = 31.109 units = m
New Line.16005045_linha_media Phases = 3 Bus1 = 59851649827547427MT.1.2.3 Bus2 = 59848791827546226MT.1.2.3 Linecode = 16512375H-3_linecode_media Length = 31.001 units = m
New Line.15028631_linha_media Phases = 3 Bus1 = 59771282827516655MT.1.2.3 Bus2 = 59771318827516500MT.1.2.3 Linecode = 16512329H-3P_linecode_media Length = 1.591 units = m
New Line.18292482_linha_media Phases = 3 Bus1 = 59752819827511918MT.1.2.3 Bus2 = 59752471827512776MT.1.2.3 Linecode = 16512329H-3_linecode_media Length = 9.259 units = m
New Line.16005041_linha_media Phases = 3 Bus1 = 59838663827542356MT.1.2.3 Bus2 = 59835079827540905MT.1.2.3 Linecode = 16512375H-3_linecode_media Length = 38.666 units = m
New Line.16757792_linha_media Phases = 3 Bus1 = 59758746827507851MT.1.2.3 Bus2 = 59758425827508782MT.1.2.3 Linecode = 16512329H-3_linecode_media Length = 9.848 units = m
New Line.16005008_linha_media Phases = 3 Bus1 = 59789268827523621MT.1.2.3 Bus2 = 59785960827522415MT.1.2.3 Linecode = 16512375H-3_linecode_media Length = 35.21 units = m
New Line.16004790_linha_media Phases = 3 Bus1 = 59718432827514941MT.1.2.3 Bus2 = 59716729827517370MT.1.2.3 Linecode = 5281628C-3_linecode_media Length = 29.665 units = m
New Line.13546737_linha_media Phases = 3 Bus1 = 59730161827497990MT.1.2.3 Bus2 = 59730480827496687MT.1.2.3 Linecode = 16512329H-3_linecode_media Length = 13.415 units = m
New Line.16005015_linha_media Phases = 3 Bus1 = 59817177827534102MT.1.2.3 Bus2 = 59814420827533035MT.1.2.3 Linecode = 16512375H-3_linecode_media Length = 29.563 units = m
New Line.13089482_linha_media Phases = 3 Bus1 = 59730480827496687MT.1.2.3 Bus2 = 59730834827495055MT.1.2.3 Linecode = 16512329H-3_linecode_media Length = 16.7 units = m
New Line.15366491_linha_media Phases = 3 Bus1 = 59728503827502072MT.1.2.3 Bus2 = 59729567827500575MT.1.2.3 Linecode = 5281628C-3_linecode_media Length = 18.366 units = m
New Line.16005071_linha_media Phases = 3 Bus1 = 59715864827499662MT.1.2.3 Bus2 = 59712355827498966MT.1.2.3 Linecode = 16512375H-3_linecode_media Length = 35.774 units = m
New Line.16004792_linha_media Phases = 3 Bus1 = 59729458827502233MT.1.2.3 Bus2 = 59728503827502072MT.1.2.3 Linecode = 16512375H-3_linecode_media Length = 9.685 units = m
New Line.15364970_linha_media Phases = 3 Bus1 = 59729601827500429MT.1.2.3 Bus2 = 59730161827497990MT.1.2.3 Linecode = 16512329H-3_linecode_media Length = 26.524 units = m
New Line.14885043_linha_media Phases = 3 Bus1 = 59904185827576240MT.1.2.3 Bus2 = 59903688827576127MT.1.2.3 Linecode = 5281632C-3_linecode_media Length = 5.097 units = m
New Line.16005012_linha_media Phases = 3 Bus1 = 59809599827531164MT.1.2.3 Bus2 = 59806821827530244MT.1.2.3 Linecode = 16512375H-3_linecode_media Length = 29.264 units = m
New Line.13705927_linha_media Phases = 3 Bus1 = 59875695827568351MT.1.2.3 Bus2 = 59872775827568096MT.1.2.3 Linecode = 5281632C-3_linecode_media Length = 27.202 units = m
New Line.15901508_linha_media Phases = 3 Bus1 = 59728503827502072MT.1.2.3 Bus2 = 59727000827503864MT.1.2.3 Linecode = 5281628C-3_linecode_media Length = 23.389 units = m
New Line.16728916_linha_media Phases = 3 Bus1 = 59739989827507012MT.1.2.3 Bus2 = 59738416827510981MT.1.2.3 Linecode = 16512325H-3_linecode_media Length = 44.188 units = m
New Line.13159755_linha_media Phases = 3 Bus1 = 59716729827517370MT.1.2.3 Bus2 = 59718279827519735MT.1.2.3 Linecode = 5281628C-3_linecode_media Length = 28.046 units = m
New Line.13705920_linha_media Phases = 3 Bus1 = 59889095827585436MT.1.2.3 Bus2 = 59885922827582460MT.1.2.3 Linecode = 5281632C-3_linecode_media Length = 43.502 units = m
New Line.15028623_linha_media Phases = 3 Bus1 = 59698241827486136MT.1.2.3 Bus2 = 59698275827486127MT.1.2.3 Linecode = 16512329H-3_linecode_media Length = 1.851 units = m
New Line.13705924_linha_media Phases = 3 Bus1 = 59888112827580012MT.1.2.3 Bus2 = 59886357827577086MT.1.2.3 Linecode = 5281632C-3_linecode_media Length = 32.89 units = m
New Line.13169491_linha_media Phases = 3 Bus1 = 59719735827510100MT.1.2.3 Bus2 = 59717044827507973MT.1.2.3 Linecode = 5281632C-3_linecode_media Length = 34.301 units = m
New Line.16004795_linha_media Phases = 3 Bus1 = 59752597827506298MT.1.2.3 Bus2 = 59749822827505771MT.1.2.3 Linecode = 16512375H-3_linecode_media Length = 28.246 units = m
New Line.13108552_linha_media Phases = 3 Bus1 = 59771251827516366MT.1.2.3 Bus2 = 59770391827514640MT.1.2.3 Linecode = 5281627C-3P_linecode_media Length = 20.782 units = m
New Line.16929574_linha_media Phases = 3 Bus1 = 59902819827568278MT.1.2.3 Bus2 = 59900389827568410MT.1.2.3 Linecode = 5281632C-3_linecode_media Length = 24.336 units = m
New Line.16005070_linha_media Phases = 3 Bus1 = 59745769827505002MT.1.2.3 Bus2 = 59742950827504473MT.1.2.3 Linecode = 16512375H-3_linecode_media Length = 28.682 units = m
New Line.13723133_linha_media Phases = 3 Bus1 = 59765125827514511MT.1.2.3 Bus2 = 59765802827512445MT.1.2.3 Linecode = 16512375H-3_linecode_media Length = 19.28 units = m
New Line.16005067_linha_media Phases = 3 Bus1 = 59767789827510527MT.1.2.3 Bus2 = 59768169827508131MT.1.2.3 Linecode = 16512329H-3_linecode_media Length = 25.759 units = m
New Line.15366566_linha_media Phases = 3 Bus1 = 59753967827509287MT.1.2.3 Bus2 = 59752819827511918MT.1.2.3 Linecode = 16512329H-3_linecode_media Length = 30.201 units = m
New Line.15366493_linha_media Phases = 3 Bus1 = 59736722827514801MT.1.2.3 Bus2 = 59735238827518212MT.1.2.3 Linecode = 16512325H-3_linecode_media Length = 37.198 units = m
New Line.16005052_linha_media Phases = 3 Bus1 = 59880024827569114MT.1.2.3 Bus2 = 59877200827566627MT.1.2.3 Linecode = 5281632C-3_linecode_media Length = 37.63 units = m
New Line.14885974_linha_media Phases = 3 Bus1 = 59709071827501643MT.1.2.3 Bus2 = 59706932827499966MT.1.2.3 Linecode = 5281632C-3_linecode_media Length = 27.18 units = m
New Line.16004862_linha_media Phases = 3 Bus1 = 59768389827515487MT.1.2.3 Bus2 = 59765125827514511MT.1.2.3 Linecode = 16512375H-3_linecode_media Length = 34.068 units = m
New Line.15366486_linha_media Phases = 3 Bus1 = 59725379827527457MT.1.2.3 Bus2 = 59726108827528248MT.1.2.3 Linecode = 5281632C-3_linecode_media Length = 10.757 units = m
New Line.15366485_linha_media Phases = 3 Bus1 = 59726108827528248MT.1.2.3 Bus2 = 59725041827529029MT.1.2.3 Linecode = 16512325H-3P_linecode_media Length = 13.223 units = m
New Line.16005046_linha_media Phases = 3 Bus1 = 59854681827548506MT.1.2.3 Bus2 = 59851649827547427MT.1.2.3 Linecode = 16512375H-3_linecode_media Length = 32.183 units = m
New Line.15365260_linha_media Phases = 3 Bus1 = 59766513827510291MT.1.2.3 Bus2 = 59767107827508481MT.1.2.3 Linecode = 16512375H-3_linecode_media Length = 19.05 units = m
New Line.16005013_linha_media Phases = 3 Bus1 = 59812140827532263MT.1.2.3 Bus2 = 59809599827531164MT.1.2.3 Linecode = 16512375H-3_linecode_media Length = 27.685 units = m
New Line.13705926_linha_media Phases = 3 Bus1 = 59877200827566627MT.1.2.3 Bus2 = 59875695827568351MT.1.2.3 Linecode = 5281632C-3_linecode_media Length = 22.885 units = m
New Line.15366567_linha_media Phases = 3 Bus1 = 59755060827506769MT.1.2.3 Bus2 = 59754027827509150MT.1.2.3 Linecode = 16512329H-3_linecode_media Length = 25.954 units = m
New Line.15901504_linha_media Phases = 3 Bus1 = 59766513827510291MT.1.2.3 Bus2 = 59767765827510675MT.1.2.3 Linecode = 16512375H-3_linecode_media Length = 13.096 units = m
New Line.15028630_linha_media Phases = 3 Bus1 = 59742551827498094MT.1.2.3 Bus2 = 59742494827498243MT.1.2.3 Linecode = 16512329H-3_linecode_media Length = 1.595 units = m
New Line.18437729_linha_media Phases = 3 Bus1 = 59872218827555193MT.1.2.3 Bus2 = 59869211827553977MT.1.2.3 Linecode = 16512375H-3_linecode_media Length = 33.934 units = m
New Line.17176136_linha_media Phases = 3 Bus1 = 59698728827495724MT.1.2.3 Bus2 = 59698632827492346MT.1.2.3 Linecode = 16512328H-3_linecode_media Length = 32.035 units = m
New Line.16004794_linha_media Phases = 3 Bus1 = 59749822827505771MT.1.2.3 Bus2 = 59745769827505002MT.1.2.3 Linecode = 16512375H-3_linecode_media Length = 41.253 units = m
New Line.13543348_linha_media Phases = 3 Bus1 = 59749034827521338MT.1.2.3 Bus2 = 59748187827521019MT.1.2.3 Linecode = 5281622H-3P_linecode_media Length = 10.548 units = m
New Line.16005056_linha_media Phases = 3 Bus1 = 59896949827577124MT.1.2.3 Bus2 = 59895634827580089MT.1.2.3 Linecode = 5281632C-3_linecode_media Length = 32.435 units = m
New Line.12710362_linha_media Phases = 3 Bus1 = 59897833827574401MT.1.2.3 Bus2 = 59896949827577124MT.1.2.3 Linecode = 5281632C-3_linecode_media Length = 28.629 units = m
New Line.13089483_linha_media Phases = 3 Bus1 = 59730331827496674MT.1.2.3 Bus2 = 59726432827496334MT.1.2.3 Linecode = 5281627C-3_linecode_media Length = 40.634 units = m
New Line.16133279_linha_media Phases = 3 Bus1 = 59737617827512813MT.1.2.3 Bus2 = 59736628827512383MT.1.2.3 Linecode = 16512329H-3_linecode_media Length = 10.784 units = m
New Line.13169490_linha_media Phases = 3 Bus1 = 59721116827511261MT.1.2.3 Bus2 = 59719735827510100MT.1.2.3 Linecode = 5281632C-3_linecode_media Length = 18.042 units = m
New Line.16004787_linha_media Phases = 3 Bus1 = 59722587827501020MT.1.2.3 Bus2 = 59719266827500348MT.1.2.3 Linecode = 16512375H-3_linecode_media Length = 33.883 units = m
New Line.14862555_linha_media Phases = 3 Bus1 = 59905599827569756MT.1.2.3 Bus2 = 59902819827568278MT.1.2.3 Linecode = 5281632C-3_linecode_media Length = 35.904 units = m
New Line.16004791_linha_media Phases = 3 Bus1 = 59718279827519735MT.1.2.3 Bus2 = 59720652827522522MT.1.2.3 Linecode = 5281628C-3_linecode_media Length = 36.604 units = m
New Line.16102313_linha_media Phases = 3 Bus1 = 59733547827511038MT.1.2.3 Bus2 = 59730209827509585MT.1.2.3 Linecode = 16512329H-3_linecode_media Length = 36.405 units = m
New Line.13727366_linha_media Phases = 3 Bus1 = 59730834827495055MT.1.2.3 Bus2 = 59729925827494859MT.1.2.3 Linecode = 16512329H-3_linecode_media Length = 6.419 units = m
New Line.13650426_linha_media Phases = 3 Bus1 = 59726035827501664MT.1.2.3 Bus2 = 59722587827501020MT.1.2.3 Linecode = 16512375H-3_linecode_media Length = 35.076 units = m
New Line.16005058_linha_media Phases = 3 Bus1 = 59755060827506769MT.1.2.3 Bus2 = 59752597827506298MT.1.2.3 Linecode = 16512375H-3_linecode_media Length = 25.076 units = m
New Line.15901411_linha_media Phases = 3 Bus1 = 59706246827497709MT.1.2.3 Bus2 = 59702941827496796MT.1.2.3 Linecode = 16512375H-3_linecode_media Length = 35.792 units = m
New Line.15942355_linha_media Phases = 3 Bus1 = 59894079827584809MT.1.2.3 Bus2 = 59891390827586113MT.1.2.3 Linecode = 5281632C-3_linecode_media Length = 29.885 units = m
New Line.15942691_linha_media Phases = 3 Bus1 = 59764154827509679MT.1.2.3 Bus2 = 59763718827511186MT.1.2.3 Linecode = 16512329H-3P_linecode_media Length = 17.188 units = m
New Line.13650427_linha_media Phases = 3 Bus1 = 59728503827502072MT.1.2.3 Bus2 = 59726035827501664MT.1.2.3 Linecode = 16512375H-3_linecode_media Length = 25.015 units = m
New Line.14925543_linha_media Phases = 3 Bus1 = 59698167827486317MT.1.2.3 Bus2 = 59698396827485756MT.1.2.3 Linecode = 16512329H-3_linecode_media Length = 5.588 units = m
New Line.18239792_linha_media Phases = 3 Bus1 = 59720126827512166MT.1.2.3 Bus2 = 59718400827511330MT.1.2.3 Linecode = 16512329H-3_linecode_media Length = 20.676 units = m
New Line.13191442_linha_media Phases = 3 Bus1 = 59700043827495918MT.1.2.3 Bus2 = 59698728827495724MT.1.2.3 Linecode = 16512375H-3_linecode_media Length = 14.789 units = m
New Line.16005009_linha_media Phases = 3 Bus1 = 59795657827525968MT.1.2.3 Bus2 = 59792867827524880MT.1.2.3 Linecode = 16512375H-3_linecode_media Length = 29.946 units = m
New Line.14862551_linha_media Phases = 3 Bus1 = 59904137827574061MT.1.2.3 Bus2 = 59904945827571662MT.1.2.3 Linecode = 5281632C-3_linecode_media Length = 25.314 units = m
New Line.16005051_linha_media Phases = 3 Bus1 = 59869211827553977MT.1.2.3 Bus2 = 59866018827552743MT.1.2.3 Linecode = 16512375H-3_linecode_media Length = 34.232 units = m
New Line.16005007_linha_media Phases = 3 Bus1 = 59785960827522415MT.1.2.3 Bus2 = 59783086827521317MT.1.2.3 Linecode = 16512375H-3_linecode_media Length = 30.766 units = m
New Line.16005044_linha_media Phases = 3 Bus1 = 59848791827546226MT.1.2.3 Bus2 = 59845645827544953MT.1.2.3 Linecode = 16512375H-3_linecode_media Length = 33.938 units = m
New Line.13665315_linha_media Phases = 3 Bus1 = 59717044827507973MT.1.2.3 Bus2 = 59714379827505873MT.1.2.3 Linecode = 5281632C-3_linecode_media Length = 33.93 units = m
New Line.15366492_linha_media Phases = 3 Bus1 = 59730209827509585MT.1.2.3 Bus2 = 59727738827508523MT.1.2.3 Linecode = 16512329H-3_linecode_media Length = 26.896 units = m
New Line.14862546_linha_media Phases = 3 Bus1 = 59903688827576127MT.1.2.3 Bus2 = 59903830827575032MT.1.2.3 Linecode = 5281632C-3_linecode_media Length = 11.042 units = m
New Line.15941580_linha_media Phases = 3 Bus1 = 59722949827524724MT.1.2.3 Bus2 = 59725379827527457MT.1.2.3 Linecode = 5281632C-3_linecode_media Length = 38.072 units = m
New Line.18292483_linha_media Phases = 3 Bus1 = 59752471827512776MT.1.2.3 Bus2 = 59751644827514863MT.1.2.3 Linecode = 16512329H-3_linecode_media Length = 22.449 units = m
New Line.16005080_linha_media Phases = 3 Bus1 = 59720652827522522MT.1.2.3 Bus2 = 59722849827524612MT.1.2.3 Linecode = 5281628C-3_linecode_media Length = 30.323 units = m
New Line.16005019_linha_media Phases = 3 Bus1 = 59829367827538743MT.1.2.3 Bus2 = 59826557827537630MT.1.2.3 Linecode = 16512375H-3_linecode_media Length = 30.224 units = m
New Line.13705922_linha_media Phases = 3 Bus1 = 59886834827581037MT.1.2.3 Bus2 = 59888112827580012MT.1.2.3 Linecode = 5281632C-3_linecode_media Length = 16.383 units = m
New Line.16005039_linha_media Phases = 3 Bus1 = 59832206827539784MT.1.2.3 Bus2 = 59829367827538743MT.1.2.3 Linecode = 16512375H-3_linecode_media Length = 30.238 units = m
New Line.16004786_linha_media Phases = 3 Bus1 = 59712355827498966MT.1.2.3 Bus2 = 59709655827498406MT.1.2.3 Linecode = 16512375H-3_linecode_media Length = 27.575 units = m
New Line.13546739_linha_media Phases = 3 Bus1 = 59732465827488100MT.1.2.3 Bus2 = 59732748827486770MT.1.2.3 Linecode = 16512329H-3_linecode_media Length = 13.31 units = m
New Line.15028636_linha_media Phases = 3 Bus1 = 59698275827486127MT.1.2.3 Bus2 = 59698080827485885MT.1.2.3 Linecode = 16512329H-3_linecode_media Length = 4.609 units = m
New Line.13193663_linha_media Phases = 3 Bus1 = 59760911827501215MT.1.2.3 Bus2 = 59760312827501056MT.1.2.3 Linecode = 5281627C-3_linecode_media Length = 7.699 units = m
New Line.16005068_linha_media Phases = 3 Bus1 = 59780385827520275MT.1.2.3 Bus2 = 59776522827518736MT.1.2.3 Linecode = 16512375H-3_linecode_media Length = 41.583 units = m
New Line.15366424_linha_media Phases = 3 Bus1 = 59774463827518252MT.1.2.3 Bus2 = 59771282827516655MT.1.2.3 Linecode = 16512375H-3_linecode_media Length = 35.594 units = m
New Line.15366568_linha_media Phases = 3 Bus1 = 59741044827504172MT.1.2.3 Bus2 = 59741349827503423MT.1.2.3 Linecode = 16512375H-3_linecode_media Length = 8.087 units = m
New Line.16006602_linha_media Phases = 3 Bus1 = 59702941827496796MT.1.2.3 Bus2 = 59701570827496361MT.1.2.3 Linecode = 16512375H-3_linecode_media Length = 14.384 units = m
New Line.13692059_linha_media Phases = 3 Bus1 = 59755403827502989MT.1.2.3 Bus2 = 59755655827501175MT.1.2.3 Linecode = 5281631C-3_linecode_media Length = 18.314 units = m
New Line.16102369_linha_media Phases = 3 Bus1 = 59737617827512813MT.1.2.3 Bus2 = 59738914827513522MT.1.2.3 Linecode = 16512329H-3_linecode_media Length = 14.781 units = m
New Line.16789512_linha_media Phases = 3 Bus1 = 59895348827580997MT.1.2.3 Bus2 = 59894771827582736MT.1.2.3 Linecode = 5281632C-3_linecode_media Length = 18.322 units = m
New Line.16525970_linha_media Phases = 3 Bus1 = 59738914827513522MT.1.2.3 Bus2 = 59742062827514965MT.1.2.3 Linecode = 16512329H-3_linecode_media Length = 34.63 units = m
New Line.16005016_linha_media Phases = 3 Bus1 = 59819957827535135MT.1.2.3 Bus2 = 59817177827534102MT.1.2.3 Linecode = 16512375H-3_linecode_media Length = 29.657 units = m
New Line.17213246_linha_media Phases = 3 Bus1 = 59701570827496361MT.1.2.3 Bus2 = 59700191827495940MT.1.2.3 Linecode = 16512375H-3_linecode_media Length = 14.418 units = m
New Line.16757790_linha_media Phases = 3 Bus1 = 59759905827508160MT.1.2.3 Bus2 = 59758746827507851MT.1.2.3 Linecode = 16512375H-3_linecode_media Length = 11.995 units = m
New Line.16842105_linha_media Phases = 3 Bus1 = 59895634827580089MT.1.2.3 Bus2 = 59895348827580997MT.1.2.3 Linecode = 5281632C-3_linecode_media Length = 9.52 units = m
New Line.13674021_linha_media Phases = 3 Bus1 = 59699368827490214MT.1.2.3 Bus2 = 59698567827487443MT.1.2.3 Linecode = 16512328H-3_linecode_media Length = 28.844 units = m
New Line.13141484_linha_media Phases = 3 Bus1 = 59742187827499767MT.1.2.3 Bus2 = 59742551827498094MT.1.2.3 Linecode = 16512375H-3_linecode_media Length = 17.121 units = m
New Line.15901423_linha_media Phases = 3 Bus1 = 59734623827537869MT.1.2.3 Bus2 = 59735151827538412MT.1.2.3 Linecode = 5281632C-3_linecode_media Length = 7.574 units = m
New Line.16004861_linha_media Phases = 3 Bus1 = 59765802827512445MT.1.2.3 Bus2 = 59766513827510291MT.1.2.3 Linecode = 16512375H-3_linecode_media Length = 22.683 units = m
New Line.13736107_linha_media Phases = 3 Bus1 = 59751644827514863MT.1.2.3 Bus2 = 59750135827518708MT.1.2.3 Linecode = 16512329H-3_linecode_media Length = 39.278 units = m
New Line.16005017_linha_media Phases = 3 Bus1 = 59823364827536454MT.1.2.3 Bus2 = 59819957827535135MT.1.2.3 Linecode = 16512375H-3_linecode_media Length = 36.534 units = m
New Line.16525810_linha_media Phases = 3 Bus1 = 59721116827511261MT.1.2.3 Bus2 = 59722830827512781MT.1.2.3 Linecode = 5281632C-3_linecode_media Length = 22.909 units = m
New Line.16006604_linha_media Phases = 3 Bus1 = 59703108827495568MT.1.2.3 Bus2 = 59703309827492930MT.1.2.3 Linecode = 16512329H-3P_linecode_media Length = 26.456 units = m
New Line.15028629_linha_media Phases = 3 Bus1 = 59769347827515904MT.1.2.3 Bus2 = 59769235827515860MT.1.2.3 Linecode = 16512329H-3_linecode_media Length = 2.702 units = m
New Line.16005081_linha_media Phases = 3 Bus1 = 59764196827509535MT.1.2.3 Bus2 = 59759905827508160MT.1.2.3 Linecode = 16512375H-3_linecode_media Length = 45.059 units = m
New Line.14885975_linha_media Phases = 3 Bus1 = 59714379827505873MT.1.2.3 Bus2 = 59711959827503913MT.1.2.3 Linecode = 5281632C-3_linecode_media Length = 29.517 units = m
New Line.13703780_linha_media Phases = 3 Bus1 = 59885922827582460MT.1.2.3 Bus2 = 59886834827581037MT.1.2.3 Linecode = 5281632C-3_linecode_media Length = 15.809 units = m
New Line.14862552_linha_media Phases = 3 Bus1 = 59904945827571662MT.1.2.3 Bus2 = 59905479827569846MT.1.2.3 Linecode = 5281632C-3_linecode_media Length = 18.929 units = m
New Line.15028626_linha_media Phases = 3 Bus1 = 59742551827498094MT.1.2.3 Bus2 = 59742045827497910MT.1.2.3 Linecode = 16512329H-3_linecode_media Length = 1.599 units = m
New Line.13520567_linha_media Phases = 3 Bus1 = 59742062827514965MT.1.2.3 Bus2 = 59744895827516275MT.1.2.3 Linecode = 16512329H-3_linecode_media Length = 31.212 units = m
New Line.18437727_linha_media Phases = 3 Bus1 = 59875874827556588MT.1.2.3 Bus2 = 59872357827555249MT.1.2.3 Linecode = 5281632C-3_linecode_media Length = 37.633 units = m
New Line.13193662_linha_media Phases = 3 Bus1 = 59761056827501254MT.1.2.3 Bus2 = 59761494827499801MT.1.2.3 Linecode = 16512329H-3_linecode_media Length = 15.176 units = m
New Line.17239163_linha_media Phases = 3 Bus1 = 59804371827529224MT.1.2.3 Bus2 = 59801075827527977MT.1.2.3 Linecode = 16512375H-3_linecode_media Length = 35.24 units = m
New Line.16728908_linha_media Phases = 3 Bus1 = 59730301827533163MT.1.2.3 Bus2 = 59732421827535534MT.1.2.3 Linecode = 5281632C-3_linecode_media Length = 31.806 units = m
New Line.14885976_linha_media Phases = 3 Bus1 = 59711959827503913MT.1.2.3 Bus2 = 59709071827501643MT.1.2.3 Linecode = 5281632C-3_linecode_media Length = 36.733 units = m
New Line.16005042_linha_media Phases = 3 Bus1 = 59842154827543712MT.1.2.3 Bus2 = 59838663827542356MT.1.2.3 Linecode = 16512375H-3_linecode_media Length = 37.451 units = m
New Line.13703788_linha_media Phases = 3 Bus1 = 59876072827560925MT.1.2.3 Bus2 = 59876466827558735MT.1.2.3 Linecode = 5281632C-3_linecode_media Length = 20.825 units = m
New Line.16757793_linha_media Phases = 3 Bus1 = 59758746827507851MT.1.2.3 Bus2 = 59759643827505320MT.1.2.3 Linecode = 16512329H-3_linecode_media Length = 26.853 units = m
New Line.17238868_linha_media Phases = 3 Bus1 = 59806821827530244MT.1.2.3 Bus2 = 59804371827529224MT.1.2.3 Linecode = 16512375H-3_linecode_media Length = 26.538 units = m
New Line.13791531_linha_media Phases = 3 Bus1 = 59720407827512296MT.1.2.3 Bus2 = 59718432827514941MT.1.2.3 Linecode = 5281628C-3_linecode_media Length = 31.457 units = m
New Line.16005018_linha_media Phases = 3 Bus1 = 59826557827537630MT.1.2.3 Bus2 = 59823364827536454MT.1.2.3 Linecode = 16512375H-3_linecode_media Length = 34.027 units = m
New Line.15366490_linha_media Phases = 3 Bus1 = 59719266827500348MT.1.2.3 Bus2 = 59715864827499662MT.1.2.3 Linecode = 16512375H-3_linecode_media Length = 34.705 units = m
New Line.13665316_linha_media Phases = 3 Bus1 = 59698567827487443MT.1.2.3 Bus2 = 59698167827486317MT.1.2.3 Linecode = 16512328H-3_linecode_media Length = 10.025 units = m
New Line.16005050_linha_media Phases = 3 Bus1 = 59866018827552743MT.1.2.3 Bus2 = 59863417827551874MT.1.2.3 Linecode = 16512375H-3_linecode_media Length = 27.423 units = m
New Line.13177301_linha_media Phases = 3 Bus1 = 59698052827496782MT.1.2.3 Bus2 = 59697846827497137MT.1.2.3 Linecode = 16512328H-3_linecode_media Length = 5.605 units = m
New Line.16005047_linha_media Phases = 3 Bus1 = 59857847827549624MT.1.2.3 Bus2 = 59854681827548506MT.1.2.3 Linecode = 16512375H-3_linecode_media Length = 33.576 units = m
New Line.16005079_linha_media Phases = 3 Bus1 = 59721116827511261MT.1.2.3 Bus2 = 59720407827512296MT.1.2.3 Linecode = 5281628C-3_linecode_media Length = 12.546 units = m
New Line.13124915_linha_media Phases = 3 Bus1 = 59771282827516655MT.1.2.3 Bus2 = 59770032827516199MT.1.2.3 Linecode = 16512375H-3_linecode_media Length = 10.826 units = m
New Line.18608652_linha_media Phases = 3 Bus1 = 59726108827528248MT.1.2.3 Bus2 = 59727135827527915MT.1.2.3 Linecode = 5281632C-3_linecode_media Length = 10.796 units = m
New Line.16004864_linha_media Phases = 3 Bus1 = 59776522827518736MT.1.2.3 Bus2 = 59774463827518252MT.1.2.3 Linecode = 16512375H-3_linecode_media Length = 21.151 units = m
New Line.17213409_linha_media Phases = 3 Bus1 = 59755841827499728MT.1.2.3 Bus2 = 59756248827496437MT.1.2.3 Linecode = 5281631C-3_linecode_media Length = 33.161 units = m
New Line.13736381_linha_media Phases = 3 Bus1 = 59736314827503352MT.1.2.3 Bus2 = 59733003827502810MT.1.2.3 Linecode = 16512375H-3_linecode_media Length = 33.551 units = m
New Line.16005040_linha_media Phases = 3 Bus1 = 59835079827540905MT.1.2.3 Bus2 = 59832206827539784MT.1.2.3 Linecode = 16512375H-3_linecode_media Length = 30.84 units = m
New Line.16005014_linha_media Phases = 3 Bus1 = 59814420827533035MT.1.2.3 Bus2 = 59812140827532263MT.1.2.3 Linecode = 16512375H-3_linecode_media Length = 24.072 units = m
New Line.16929575_linha_media Phases = 3 Bus1 = 59905599827569756MT.1.2.3 Bus2 = 59907967827569935MT.1.2.3 Linecode = 5281632C-3_linecode_media Length = 25.787 units = m
New Line.13546738_linha_media Phases = 3 Bus1 = 59731663827491823MT.1.2.3 Bus2 = 59732465827488100MT.1.2.3 Linecode = 16512329H-3_linecode_media Length = 38.084 units = m
New Line.15028616_linha_media Phases = 3 Bus1 = 59728039827527220MT.1.2.3 Bus2 = 59728263827527188MT.1.2.3 Linecode = 16512329H-3_linecode_media Length = 3.767 units = m
New Line.16004785_linha_media Phases = 3 Bus1 = 59709655827498406MT.1.2.3 Bus2 = 59706391827497749MT.1.2.3 Linecode = 16512375H-3_linecode_media Length = 33.295 units = m
New Line.16005078_linha_media Phases = 3 Bus1 = 59882223827571150MT.1.2.3 Bus2 = 59880024827569114MT.1.2.3 Linecode = 5281632C-3_linecode_media Length = 29.968 units = m
New Line.15342180_linha_media Phases = 3 Bus1 = 59727135827527915MT.1.2.3 Bus2 = 59727890827527241MT.1.2.3 Linecode = 5281632C-3_linecode_media Length = 10.121 units = m
New Line.16757791_linha_media Phases = 3 Bus1 = 59758746827507851MT.1.2.3 Bus2 = 59755961827506976MT.1.2.3 Linecode = 16512375H-3_linecode_media Length = 29.192 units = m
New Line.13546735_linha_media Phases = 3 Bus1 = 59730834827495055MT.1.2.3 Bus2 = 59731663827491823MT.1.2.3 Linecode = 16512329H-3_linecode_media Length = 31.568 units = m
New Line.13705929_linha_media Phases = 3 Bus1 = 59874011827565490MT.1.2.3 Bus2 = 59876072827560925MT.1.2.3 Linecode = 5281632C-3_linecode_media Length = 47.664 units = m
New Line.16004788_linha_media Phases = 3 Bus1 = 59724457827507004MT.1.2.3 Bus2 = 59722491827509448MT.1.2.3 Linecode = 5281628C-3_linecode_media Length = 31.366 units = m
New Line.16005060_linha_media Phases = 3 Bus1 = 59741044827504172MT.1.2.3 Bus2 = 59739728827503888MT.1.2.3 Linecode = 16512375H-3_linecode_media Length = 13.463 units = m
New Line.16004789_linha_media Phases = 3 Bus1 = 59722400827509568MT.1.2.3 Bus2 = 59721116827511261MT.1.2.3 Linecode = 5281628C-3_linecode_media Length = 22.754 units = m
New Line.16005057_linha_media Phases = 3 Bus1 = 59766513827510291MT.1.2.3 Bus2 = 59765623827510036MT.1.2.3 Linecode = 16512375H-3_linecode_media Length = 9.258 units = m
New Line.16728915_linha_media Phases = 3 Bus1 = 59738416827510981MT.1.2.3 Bus2 = 59737617827512813MT.1.2.3 Linecode = 16512325H-3_linecode_media Length = 19.987 units = m
New Line.13169492_linha_media Phases = 3 Bus1 = 59722830827512781MT.1.2.3 Bus2 = 59724120827513785MT.1.2.3 Linecode = 5281632C-3_linecode_media Length = 15.981 units = m
New Line.15901425_linha_media Phases = 3 Bus1 = 59737617827512813MT.1.2.3 Bus2 = 59736722827514801MT.1.2.3 Linecode = 16512325H-3_linecode_media Length = 21.802 units = m
New Line.16102314_linha_media Phases = 3 Bus1 = 59736628827512383MT.1.2.3 Bus2 = 59733547827511038MT.1.2.3 Linecode = 16512329H-3_linecode_media Length = 33.618 units = m
New Line.14862548_linha_media Phases = 3 Bus1 = 59903830827575032MT.1.2.3 Bus2 = 59904137827574061MT.1.2.3 Linecode = 5281632C-3_linecode_media Length = 10.184 units = m
New Line.14885972_linha_media Phases = 3 Bus1 = 59705652827498596MT.1.2.3 Bus2 = 59701366827497241MT.1.2.3 Linecode = 5281632C-3_linecode_media Length = 43.779 units = m
New Line.15901896_linha_media Phases = 3 Bus1 = 59907967827569935MT.1.2.3 Bus2 = 59908059827569200MT.1.2.3 Linecode = 16512375H-3_linecode_media Length = 8.909 units = m
New Line.16005069_linha_media Phases = 3 Bus1 = 59783086827521317MT.1.2.3 Bus2 = 59780385827520275MT.1.2.3 Linecode = 16512375H-3_linecode_media Length = 28.95 units = m
New Line.15366580_linha_media Phases = 3 Bus1 = 59698632827492346MT.1.2.3 Bus2 = 59699368827490214MT.1.2.3 Linecode = 16512328H-3_linecode_media Length = 22.555 units = m
New Line.14545612_linha_media Phases = 3 Bus1 = 59703359827490448MT.1.2.3 Bus2 = 59703356827489595MT.1.2.3 Linecode = 16512329H-3P_linecode_media Length = 8.53 units = m
New Line.13193661_linha_media Phases = 3 Bus1 = 59760722827502231MT.1.2.3 Bus2 = 59761056827501254MT.1.2.3 Linecode = 16512329H-3_linecode_media Length = 10.325 units = m
New Line.15028634_linha_media Phases = 3 Bus1 = 59770032827516199MT.1.2.3 Bus2 = 59769937827516071MT.1.2.3 Linecode = 16512329H-3_linecode_media Length = 1.594 units = m
...
New Transformer.34581371 Phases=3 Windings=2 xhl=3.63 %noloadloss=0.123
~ wdg=1 bus=59765802827512445ET.1.2.3 conn=delta kv=13.8 kva=112.5 %r=1.68 tap=1
~ wdg=2 bus=59765597827512393BT.1.2.3.0 conn=wye kv=0.22 kva=112.5 %r=1.68 tap=1
New Transformer.34589241 Phases=3 Windings=2 xhl=3.63 %noloadloss=0.123
~ wdg=1 bus=59762124827497594ET.1.2.3 conn=delta kv=13.8 kva=112.5 %r=1.68 tap=1
~ wdg=2 bus=59762013827497493BT.1.2.3.0 conn=wye kv=0.22 kva=112.5 %r=1.68 tap=1
New Transformer.34596085 Phases=3 Windings=2 xhl=5.0 %noloadloss=0.5
~ wdg=1 bus=59731582827487733ET.1.2.3 conn=delta kv=13.8 kva=750.0 %r=4.0 tap=1
~ wdg=2 bus=59731414827487687BT.1.2.3.0 conn=wye kv=0.22 kva=750.0 %r=4.0 tap=1
New Transformer.34621609 Phases=3 Windings=2 xhl=3.63 %noloadloss=0.123
~ wdg=1 bus=59770391827514640ET.1.2.3 conn=delta kv=13.8 kva=75.0 %r=1.68 tap=1
~ wdg=2 bus=59770320827514488BT.1.2.3.0 conn=wye kv=0.22 kva=75.0 %r=1.68 tap=1
New Transformer.34629110 Phases=3 Windings=2 xhl=5.0 %noloadloss=0.5
~ wdg=1 bus=59729925827494859ET.1.2.3 conn=delta kv=13.8 kva=509.0 %r=4.0 tap=1
~ wdg=2 bus=59729717827494818BT.1.2.3.0 conn=wye kv=0.22 kva=509.0 %r=4.0 tap=1
New Transformer.34630183 Phases=3 Windings=2 xhl=3.63 %noloadloss=0.123
~ wdg=1 bus=59742062827514965ET.1.2.3 conn=delta kv=13.8 kva=112.5 %r=1.68 tap=1
~ wdg=2 bus=59741986827515095BT.1.2.3.0 conn=wye kv=0.22 kva=112.5 %r=1.68 tap=1
New Transformer.34651280 Phases=3 Windings=2 xhl=3.63 %noloadloss=0.123
~ wdg=1 bus=59701570827496361ET.1.2.3 conn=delta kv=13.8 kva=150.0 %r=1.68 tap=1
~ wdg=2 bus=59701525827496195BT.1.2.3.0 conn=wye kv=0.22 kva=150.0 %r=1.68 tap=1
New Transformer.34651815 Phases=3 Windings=2 xhl=3.63 %noloadloss=0.123
~ wdg=1 bus=59727738827508523ET.1.2.3 conn=delta kv=13.8 kva=75.0 %r=1.68 tap=1
~ wdg=2 bus=59727671827508682BT.1.2.3.0 conn=wye kv=0.22 kva=75.0 %r=1.68 tap=1
New Transformer.34654153 Phases=3 Windings=2 xhl=3.275 %noloadloss=0.121
~ wdg=1 bus=59703356827489595ET.1.2.3 conn=delta kv=13.8 kva=10.0 %r=2.033 tap=1
~ wdg=2 bus=59703241827489572BT.1.2.3.0 conn=wye kv=0.22 kva=10.0 %r=2.033 tap=1
New Transformer.34657845 Phases=3 Windings=2 xhl=3.275 %noloadloss=0.121
~ wdg=1 bus=59703356827489595ET.1.2.3 conn=delta kv=13.8 kva=10.0 %r=2.033 tap=1
~ wdg=2 bus=59703473827489565BT.1.2.3.0 conn=wye kv=0.22 kva=10.0 %r=2.033 tap=1
New Transformer.34667192 Phases=3 Windings=2 xhl=3.63 %noloadloss=0.123
~ wdg=1 bus=59756248827496437ET.1.2.3 conn=delta kv=13.8 kva=75.0 %r=1.68 tap=1
~ wdg=2 bus=59756422827496463BT.1.2.3.0 conn=wye kv=0.22 kva=75.0 %r=1.68 tap=1
New Transformer.34674947 Phases=3 Windings=2 xhl=5.0 %noloadloss=0.5
~ wdg=1 bus=59734623827537869ET.1.2.3 conn=delta kv=13.8 kva=400.0 %r=4.0 tap=1
~ wdg=2 bus=59734761827537734BT.1.2.3.0 conn=wye kv=0.22 kva=400.0 %r=4.0 tap=1
New Transformer.34676976 Phases=3 Windings=2 xhl=3.63 %noloadloss=0.123
~ wdg=1 bus=59801075827527977ET.1.2.3 conn=delta kv=13.8 kva=75.0 %r=1.68 tap=1
~ wdg=2 bus=59801259827528013BT.1.2.3.0 conn=wye kv=0.22 kva=75.0 %r=1.68 tap=1
New Transformer.34682101 Phases=3 Windings=2 xhl=3.63 %noloadloss=0.123
~ wdg=1 bus=59752819827511918ET.1.2.3 conn=delta kv=13.8 kva=112.5 %r=1.68 tap=1
~ wdg=2 bus=59752994827511974BT.1.2.3.0 conn=wye kv=0.22 kva=112.5 %r=1.68 tap=1
New Transformer.34683400 Phases=3 Windings=2 xhl=3.63 %noloadloss=0.123
~ wdg=1 bus=59718400827511330MT.1.2.3 conn=delta kv=13.8 kva=112.5 %r=1.68 tap=1
~ wdg=2 bus=59718306827511522BT.1.2.3.0 conn=wye kv=0.22 kva=112.5 %r=1.68 tap=1
New Transformer.34692798 Phases=3 Windings=2 xhl=4.423 %noloadloss=0.5
~ wdg=1 bus=59743486827500480MT.1.2.3 conn=delta kv=13.8 kva=225.0 %r=4.0 tap=1
~ wdg=2 bus=59743644827500564BT.1.2.3.0 conn=wye kv=0.22 kva=225.0 %r=4.0 tap=1
New Transformer.34699157 Phases=3 Windings=2 xhl=3.63 %noloadloss=0.123
~ wdg=1 bus=59760312827501056MT.1.2.3 conn=delta kv=13.8 kva=150.0 %r=1.68 tap=1
~ wdg=2 bus=59760167827501017BT.1.2.3.0 conn=wye kv=0.22 kva=150.0 %r=1.68 tap=1
New Transformer.34703388 Phases=3 Windings=2 xhl=3.63 %noloadloss=0.123
~ wdg=1 bus=59719266827500348ET.1.2.3 conn=delta kv=13.8 kva=75.0 %r=1.68 tap=1
~ wdg=2 bus=59719311827500172BT.1.2.3.0 conn=wye kv=0.22 kva=75.0 %r=1.68 tap=1
New Transformer.34704132 Phases=3 Windings=2 xhl=3.63 %noloadloss=0.123
~ wdg=1 bus=59749735827519790ET.1.2.3 conn=delta kv=13.8 kva=75.0 %r=1.68 tap=1
~ wdg=2 bus=59749580827519706BT.1.2.3.0 conn=wye kv=0.22 kva=75.0 %r=1.68 tap=1
New Transformer.34705891 Phases=3 Windings=2 xhl=3.63 %noloadloss=0.123
~ wdg=1 bus=59745769827505002ET.1.2.3 conn=delta kv=13.8 kva=112.5 %r=1.68 tap=1
~ wdg=2 bus=59745790827504839BT.1.2.3.0 conn=wye kv=0.22 kva=112.5 %r=1.68 tap=1
New Transformer.34711003 Phases=3 Windings=2 xhl=3.63 %noloadloss=0.123
~ wdg=1 bus=59763718827511186MT.1.2.3 conn=delta kv=13.8 kva=75.0 %r=1.68 tap=1
~ wdg=2 bus=59763669827511338BT.1.2.3.0 conn=wye kv=0.22 kva=75.0 %r=1.68 tap=1
New Transformer.34719405 Phases=3 Windings=2 xhl=3.63 %noloadloss=0.123
~ wdg=1 bus=59769451827505176ET.1.2.3 conn=delta kv=13.8 kva=112.5 %r=1.68 tap=1
~ wdg=2 bus=59769620827505253BT.1.2.3.0 conn=wye kv=0.22 kva=112.5 %r=1.68 tap=1
New Transformer.34719409 Phases=3 Windings=2 xhl=3.63 %noloadloss=0.123
~ wdg=1 bus=59854681827548506ET.1.2.3 conn=delta kv=13.8 kva=112.5 %r=1.68 tap=1
~ wdg=2 bus=59854585827548770BT.1.2.3.0 conn=wye kv=0.22 kva=112.5 %r=1.68 tap=1
New Transformer.34724002 Phases=3 Windings=2 xhl=3.63 %noloadloss=0.123
~ wdg=1 bus=59806821827530244ET.1.2.3 conn=delta kv=13.8 kva=75.0 %r=1.68 tap=1
~ wdg=2 bus=59806819827530123BT.1.2.3.0 conn=wye kv=0.22 kva=75.0 %r=1.68 tap=1
New Transformer.34741744 Phases=3 Windings=2 xhl=4.0 %noloadloss=0.5
~ wdg=1 bus=59731663827491823ET.1.2.3 conn=delta kv=13.8 kva=45.0 %r=3.0 tap=1
~ wdg=2 bus=59731839827491863BT.1.2.3.0 conn=wye kv=0.22 kva=45.0 %r=3.0 tap=1
New Transformer.34751065 Phases=3 Windings=2 xhl=3.63 %noloadloss=0.123
~ wdg=1 bus=59717044827507973ET.1.2.3 conn=delta kv=13.8 kva=75.0 %r=1.68 tap=1
~ wdg=2 bus=59716933827508112BT.1.2.3.0 conn=wye kv=0.22 kva=75.0 %r=1.68 tap=1
New Transformer.34755506 Phases=3 Windings=2 xhl=3.63 %noloadloss=0.123
~ wdg=1 bus=59752471827512776ET.1.2.3 conn=delta kv=13.8 kva=150.0 %r=1.68 tap=1
~ wdg=2 bus=59752671827512849BT.1.2.3.0 conn=wye kv=0.22 kva=150.0 %r=1.68 tap=1
New Transformer.34756002 Phases=3 Windings=2 xhl=4.0 %noloadloss=0.5
~ wdg=1 bus=59902179827569261ET.1.2.3 conn=delta kv=13.8 kva=45.0 %r=3.0 tap=1
~ wdg=2 bus=59902043827569096BT.1.2.3.0 conn=wye kv=0.22 kva=45.0 %r=3.0 tap=1
New Transformer.34760174 Phases=3 Windings=2 xhl=3.63 %noloadloss=0.123
~ wdg=1 bus=59884204827574489ET.1.2.3 conn=delta kv=13.8 kva=112.5 %r=1.68 tap=1
~ wdg=2 bus=59884156827574350BT.1.2.3.0 conn=wye kv=0.22 kva=112.5 %r=1.68 tap=1
New Transformer.34764930 Phases=3 Windings=2 xhl=5.0 %noloadloss=0.5
~ wdg=1 bus=59726432827496334MT.1.2.3 conn=delta kv=13.8 kva=300.0 %r=4.0 tap=1
~ wdg=2 bus=59726254827496297BT.1.2.3.0 conn=wye kv=0.22 kva=300.0 %r=4.0 tap=1
New Transformer.34769157 Phases=3 Windings=2 xhl=4.423 %noloadloss=0.5
~ wdg=1 bus=59748187827521019ET.1.2.3 conn=delta kv=13.8 kva=225.0 %r=4.0 tap=1
~ wdg=2 bus=59748002827520966BT.1.2.3.0 conn=wye kv=0.22 kva=225.0 %r=4.0 tap=1
New Transformer.34776848 Phases=3 Windings=2 xhl=3.63 %noloadloss=0.123
~ wdg=1 bus=59730301827533163ET.1.2.3 conn=delta kv=13.8 kva=112.5 %r=1.68 tap=1
~ wdg=2 bus=59730126827533316BT.1.2.3.0 conn=wye kv=0.22 kva=112.5 %r=1.68 tap=1
New Transformer.34777087 Phases=3 Windings=2 xhl=5.0 %noloadloss=0.5
~ wdg=1 bus=59703359827490448ET.1.2.3 conn=delta kv=13.8 kva=509.0 %r=4.0 tap=1
~ wdg=2 bus=59703506827490435BT.1.2.3.0 conn=wye kv=0.22 kva=509.0 %r=4.0 tap=1
New Transformer.34781158 Phases=3 Windings=2 xhl=3.63 %noloadloss=0.123
~ wdg=1 bus=59736722827514801ET.1.2.3 conn=delta kv=13.8 kva=112.5 %r=1.68 tap=1
~ wdg=2 bus=59736512827514805BT.1.2.3.0 conn=wye kv=0.22 kva=112.5 %r=1.68 tap=1
New Transformer.34792559 Phases=3 Windings=2 xhl=5.0 %noloadloss=0.5
~ wdg=1 bus=59735151827538412ET.1.2.3 conn=delta kv=13.8 kva=1000.0 %r=4.0 tap=1
~ wdg=2 bus=59735285827538292BT.1.2.3.0 conn=wye kv=0.22 kva=1000.0 %r=4.0 tap=1
New Transformer.34792908 Phases=3 Windings=2 xhl=3.63 %noloadloss=0.123
~ wdg=1 bus=59703359827490448ET.1.2.3 conn=delta kv=13.8 kva=150.0 %r=1.68 tap=1
~ wdg=2 bus=59703253827490425BT.1.2.3.0 conn=wye kv=0.22 kva=150.0 %r=1.68 tap=1
New Transformer.34798802 Phases=3 Windings=2 xhl=5.0 %noloadloss=0.5
~ wdg=1 bus=59755655827501175ET.1.2.3 conn=delta kv=13.8 kva=1250.0 %r=4.0 tap=1
~ wdg=2 bus=59755831827501192BT.1.2.3.0 conn=wye kv=0.38 kva=1250.0 %r=4.0 tap=1
New Transformer.34804823 Phases=3 Windings=2 xhl=3.63 %noloadloss=0.123
~ wdg=1 bus=59755961827506976ET.1.2.3 conn=delta kv=13.8 kva=112.5 %r=1.68 tap=1
~ wdg=2 bus=59755995827506829BT.1.2.3.0 conn=wye kv=0.22 kva=112.5 %r=1.68 tap=1
New Transformer.34809867 Phases=3 Windings=2 xhl=3.63 %noloadloss=0.123
~ wdg=1 bus=59729925827494859ET.1.2.3 conn=delta kv=13.8 kva=150.0 %r=1.68 tap=1
~ wdg=2 bus=59729955827494699BT.1.2.3.0 conn=wye kv=0.22 kva=150.0 %r=1.68 tap=1
New loadshape.myirrad_00a1f2cf64df27b4da2e762b7fe87f42a1f4d7ade34da89d5494f66293c1f4fb npts = 1 interval = 1 mult = [1]
New tshape.mytemp_00a1f2cf64df27b4da2e762b7fe87f42a1f4d7ade34da89d5494f66293c1f4fb npts = 1 interval = 1 temp = [25]
New xycurve.mypvst_00a1f2cf64df27b4da2e762b7fe87f42a1f4d7ade34da89d5494f66293c1f4fb npts = 4 xarray=[0 25 75 100] yarray=[1.2 1.0 0.8 0.6]
New xycurve.myeff_00a1f2cf64df27b4da2e762b7fe87f42a1f4d7ade34da89d5494f66293c1f4fb npts = 4 xarray=[.1 .2 .4 1.0] yarray=[.86 .9 .93 .97]
New Load.nome_34703388_curva_diaria_COM-Tipo1_0.6653_0.6639_0.6459_0.6392_0.6346_0.6299_0.6232_0.6174_0.6069_0.6075_0.5927_0.5925_0.5936_0.5856_0.5815_0.5780_0.5730_0.5642_0.5657_0.5552_0.5579_0.5713_0.5598_0.5570_0.5586_0.5617_0.5453_0.5406_0.5538_0.5296_0.5264_0.5366_0.5345_0.5385_0.5526_0.5612_0.5554_0.5830_0.5656_0.6096_0.5866_0.5944_0.5795_0.5859_0.6052_0.6124_0.6257_0.6359_0.6203_0.6200_0.6277_0.6228_0.6428_0.6553_0.6508_0.6557_0.6569_0.6691_0.6736_0.6722_0.6569_0.6672_0.6729_0.6828_0.6775_0.6683_0.6779_0.6571_0.6792_0.6951_0.7294_0.7402_0.7953_0.7990_0.8107_0.8384_0.8181_0.8355_0.8111_0.8033_0.7832_0.7912_0.7698_0.7601_0.7664_0.7376_0.7235_0.7060_0.7145_0.6908_0.6840_0.6666_0.6606_0.6548_0.6732_0.6867_curva_anual_50.17_46.19_57.05_44.00_45.51_39.24_31.63_51.92_65.39_68.87_75.85_63.41_carga_agregada Bus1=59719311827500172BT.1.2.3.0 Phases=3
~ Conn=wye Model=1 Kv=0.22 Kw=1 pf=0.92
New Load.nome_34755506_curva_diaria_RES-Tipo3_0.7381_0.7175_0.7311_0.7139_0.6939_0.6899_0.6731_0.6762_0.6763_0.6583_0.6749_0.6649_0.6279_0.6477_0.6325_0.6272_0.5932_0.6027_0.6164_0.6018_0.6112_0.5924_0.5922_0.5472_0.5174_0.5009_0.4937_0.5120_0.4905_0.4382_0.4406_0.4584_0.4230_0.4749_0.4295_0.4053_0.3922_0.4112_0.4062_0.4144_0.4139_0.3961_0.3881_0.4378_0.4356_0.4496_0.4705_0.4730_0.4751_0.5144_0.4826_0.4722_0.5385_0.5440_0.5447_0.5300_0.5139_0.5452_0.5533_0.5570_0.5259_0.5305_0.5490_0.5650_0.5341_0.5490_0.5210_0.5153_0.5451_0.5593_0.5733_0.6123_0.6816_0.6853_0.7523_0.7785_0.8030_0.7914_0.8714_0.8464_0.8182_0.8380_0.8286_0.8077_0.7887_0.7566_0.7683_0.7351_0.7564_0.7517_0.7428_0.7354_0.7361_0.7425_0.7499_0.7277_curva_anual_70.85_67.16_82.29_64.14_67.40_59.50_59.69_98.08_119.67_125.44_136.47_123.92_carga_agregada Bus1=59752671827512849BT.1.2.3.0 Phases=3
~ Conn=wye Model=1 Kv=0.22 Kw=1 pf=0.92
...